# File generated by Flopy version 3.3.2 on 02/01/2021 at 11:37:37.
BEGIN options
END options

BEGIN timing
  TDIS6  modelo_enero_18.tdis
END timing

BEGIN models
  gwf6  modelo_enero_18.nam  modelo_enero_18
END models

BEGIN exchanges
END exchanges

BEGIN solutiongroup  1
  ims6  modelo_enero_18.ims  modelo_enero_18
END solutiongroup  1

