# File generated by Flopy version 3.3.2 on 01/31/2021 at 13:08:55.
BEGIN options
END options

BEGIN packages
  DIS6  modelo_enero_18.dis  dis
  IC6  modelo_enero_18.ic  ic
  NPF6  modelo_enero_18.npf  npf
  CHD6  modelo_enero_18.chd  chd_0
  OC6  modelo_enero_18.oc  oc
END packages

