# File generated by Flopy version 3.3.2 on 02/01/2021 at 12:08:41.
BEGIN options
  BUDGET  FILEOUT  modelo_enero_18.cbb
  HEAD  FILEOUT  modelo_enero_18.hds
END options

BEGIN period  1
  SAVE  HEAD  ALL
  SAVE  BUDGET  ALL
  PRINT  HEAD  LAST
END period  1

