<<<<<<< HEAD
# File generated by Flopy version 3.3.2 on 02/01/2021 at 12:08:37.
=======
# File generated by Flopy version 3.3.2 on 02/01/2021 at 11:37:37.
>>>>>>> experimento
BEGIN options
  TIME_UNITS  days
END options

BEGIN dimensions
  NPER  1
END dimensions

BEGIN perioddata
       1.00000000  1       1.00000000
END perioddata

