<<<<<<< HEAD
# File generated by Flopy version 3.3.2 on 02/01/2021 at 12:08:37.
=======
# File generated by Flopy version 3.3.2 on 02/01/2021 at 11:37:37.
>>>>>>> experimento
BEGIN options
END options

BEGIN packages
  DIS6  modelo_enero_18.dis  dis
  IC6  modelo_enero_18.ic  ic
  NPF6  modelo_enero_18.npf  npf
  CHD6  modelo_enero_18.chd  chd_0
  OC6  modelo_enero_18.oc  oc
END packages

