# File generated by Flopy version 3.3.2 on 01/31/2021 at 12:19:17.
BEGIN options
  COMPLEXITY  simple
END options

