# File generated by Flopy version 3.3.2 on 02/01/2021 at 11:37:37.
BEGIN options
  COMPLEXITY  simple
END options

